cases/wecc_vis_out.txt
ANDES 1.3.5.post2+g454d259c
Copyright (C) 2015-2021 Hantao Cui

ANDES comes with ABSOLUTELY NO WARRANTY
Case file: wecc_vis.xlsx
Report time: 04/22/2021 07:36:14 PM

Power flow converged in 2 iterations.
Flat-start: No

Statistics:
Buses                    179
Generators                29
Committed Gens            29
Loads                    104
Shunts                    40
Lines                    263
Transformers              60
Areas                      0

EXTENDED SUMMARY:
                      P (pu)        Q (pu)

Generation            614.11        123.32
Load                  607.85        153.51

BUS DATA:
                    Bus Name        Vm(pu)      Va(rad.)

1                   CORONADO       0.97947      -0.45683
2                     CHOLLA       0.97744      -0.29601
3                   CORONADO          1.04      -0.34311
4                      CRAIG       0.97518       0.28406
5                      CRAIG          0.95       0.41109
6                   FOURCORN        1.0681      -0.13795
7                   FOURCORN        1.0091      -0.08181
8                   FCNGN4CC             1      0.038922
9                   FOURCORN        1.0073     -0.091294
10                    HAYDEN             1        0.5887
11                    NAVAJO        1.0721      -0.41774
12                  NAVAJO 2             1      -0.31086
13                  MOENKOPI        1.0673       -0.4338
14                  PALOVRD2          0.96      -0.37898
15                  PALOVRDE        1.0486      -0.51732
16                  SAN JUAN        1.0356     -0.067621
17                  SJUAN G4             1     -0.015482
18                  WESTWING        1.0559      -0.51646
19                   NAVAJO1        1.0702      -0.39881
20                   NAVAJO2        1.0604      -0.45295
21                   NAVAJO3        1.0469      -0.38608
22                   NAVAJO4        1.0256      -0.54905
23                  MOENKOP1        1.0557      -0.40824
24                  MOENKOP2        1.0412       -0.5425
25                  MOENKOP3        1.0513       -0.2714
26                  MOENKOP4        1.0467      -0.73996
27                  FOURCOR1        1.0658      -0.10087
28                  FOURCOR2        1.0693      -0.48838
29                  CANAD G1             1       0.43175
30                    CANADA        1.0363       0.36559
31                    CANALB        1.0786       0.85933
32                   CA230TO       0.97855       0.93942
33                     CA230        1.0011        1.0974
34                  CMAIN GM          1.02        1.1832
35                  BRIDGER2         1.009       0.04296
36                  ADELANTO        1.0603      -0.73575
37                  ADELAN&1        1.0809      -0.80679
38                   CASTAIC         1.032      -0.82536
39                  CASTAI4G          1.02       -0.8025
40                   GLENDAL        1.0234      -0.88876
41                    HAYNES        1.0313      -0.88404
42                  HAYNES3G             1      -0.82639
43                   INTERMT        1.0526     -0.076204
44                  INTERM1G          1.05     0.0049059
45                     OLIVE        1.0348      -0.83128
46                   OWENS G          1.02      -0.82498
47                   RINALDI         1.034      -0.83494
48                   RINALDI        1.0721      -0.79379
49                     RIVER        1.0236      -0.90484
50                     STA B        1.0326      -0.90583
51                    STA B1        1.0366      -0.88517
52                    STA B2        1.0366      -0.88517
53                   STA BLD        1.0273      -0.90946
54                     STA E        1.0252      -0.87365
55                     STA E         1.043      -0.83188
56                     STA F        1.0248      -0.90545
57                     STA G        1.0239      -0.89315
58                     STA J        1.0311       -0.8537
59                  SYLMARLA        1.0383       -0.8229
60                  SYLMAR S        1.0207      -0.84221
61                    VALLEY        1.0293      -0.85574
62                  VICTORVL        1.0521      -0.77654
63                  VICTORVL        1.0587      -0.74133
64                  MONTA G1             1       0.98775
65                   MONTANA        1.0493       0.84127
66                  BIG EDDY        1.0686      -0.29553
67                  BIG EDDY        1.0659      -0.25429
68                  BIG EDDY        1.0892       -0.2323
69                  DALLES21         1.055      -0.13858
70                    CELILO        1.0616      -0.26313
71                  CELILOCA        1.0896      -0.23419
72                   COLSTRP        1.0784     -0.023733
73                    COULEE          1.07      0.002866
74                  GARRISON        1.0371      -0.21221
75                  JOHN DAY        1.0828      -0.19413
76                  JOHN DAY             1     2.415e-16
77                   HANFORD        1.0495     0.0039348
78                  NORTH G3             1       0.46402
79                     NORTH        1.0499       0.21132
80                     BURNS         1.053      -0.34123
81                   GRIZZLY        1.0674      -0.29928
82                     MALIN        1.0543      -0.40746
83                  MIDPOINT        1.0619     -0.090724
84                  MIDPOINT       0.99845     -0.027415
85                  SUMMER L        1.0582      -0.31826
86                  GRIZZLY1        1.0653       -0.3272
87                  GRIZZLY2        1.0714      -0.27952
88                    MALIN1        1.0506      -0.24675
89                    MALIN2        1.0609      -0.34568
90                  GRIZZLY3          1.08       -0.3804
91                  GRIZZLY4        1.0694      -0.30063
92                  GRIZZLY5        1.0686       -0.3918
93                  GRIZZLY6        1.0717      -0.31173
94                  GRIZZLY7        1.0793      -0.38495
95                  GRIZZLY8        1.0692      -0.30063
96                  GRIZZLY9        1.0676      -0.39698
97                  GRIZZLYA         1.071      -0.31231
98                    BURNS1       0.97284       0.14039
99                   CORTINA         1.131      -0.61041
100                 COTWDPGE        1.1361      -0.53212
101                   DIABLO         1.053      -0.80505
102                  DIABLO1          0.98      -0.73869
103                    GATES        1.0471       -0.8322
104                    GLENN        1.1409      -0.59688
105                 LOGAN CR        1.1402       -0.6036
106                 LOSBANOS        1.0493      -0.86441
107                   MIDWAY        1.0593      -0.84832
108                   MIDWAY        1.1671      -0.89785
109                 MOSSLAND        1.0464      -0.86903
110                   OLINDA        1.0373      -0.54225
111                 ROUND MT          1.02      -0.26318
112                 ROUND MT        1.1239      -0.43878
113                 ROUND MT        1.0345       -0.4875
114                 TABLE MT        1.0134      -0.55972
115                   TEVATR          1.05      -0.62282
116                   TEVATR        1.1274      -0.69173
117                  TEVATR2             1      -0.53724
118                   TEVATR       0.99816      -0.68057
119                  OLINDA1        1.0503      -0.42051
120                  OLINDA2        1.0114      -0.66374
121                  OLINDA3        1.0279      -0.53737
122                  OLINDA4       0.98098       -0.8133
123                   ROUND1        1.0405      -0.38445
124                   ROUND2        1.0108      -0.63084
125                   ROUND3        1.0405      -0.38445
126                   ROUND4        1.0108      -0.63084
127                   TABLE1        1.0126      -0.45041
128                   TABLE2       0.99882      -0.79134
129                   TABLE3        1.0175      -0.47678
130                   TABLE4       0.99876      -0.72294
131                  TEVATR1       0.97999      -0.64475
132                  TEVATR2        1.0705      -0.90235
133                  TEVATR3       0.97141      -0.61189
134                   GATES1        1.0681      -0.87253
135                   DEVERS        1.0354      -0.75959
136                 EAGLROCK        1.0101      -0.92083
137                 ELDORADO          1.02      -0.45332
138                 ELDORADO        1.0512      -0.57761
139                 LITEHIPE          1.02      -0.86611
140                 LITEHIPE        1.0119      -0.97344
141                     LUGO         1.055      -0.80441
142                 MESA CAL        1.0071      -0.96096
143                 MIRALOMA          1.05       -0.7931
144                 MIRALOMA        1.0409      -0.86706
145                 MIRALOMA        1.0382      -0.87484
146                   MOHAVE          1.07      -0.51243
147                 MOHAV1CC          1.05      -0.36721
148                   PARDEE          1.01      -0.69114
149                   PARDEE         1.006      -0.90201
150                  SERRANO        1.0413      -0.87401
151                   VALLEY        1.0369      -0.83358
152                  VINCENT        1.0612      -0.85425
153                  VINCENT       0.99489      -0.90115
154                 CAMP WIL        1.0429     -0.042169
155                 BENLOMND        1.0446     -0.059218
156                 BENLOMND        1.0462      -0.06909
157                    EMERY        1.0371      0.085341
158                    EMERY          1.05       0.16764
159                     MONA         1.056     -0.035034
160                 NAUGHTON        1.0445      0.010721
161                   NAUGHT             1      0.059585
162                 PINTO PS        1.0368      -0.04261
163                    PINTO        1.0404     -0.024483
164                 SPAN FRK        1.0351      -0.01906
165                   SIGURD        1.0519    -0.0095215
166                 TERMINAL        1.0391     -0.059703
167                   MALIN3        1.0611      -0.34503
168                   MALIN4        1.0256      -0.55271
169                   MALIN5        1.0618      -0.33185
170                   MALIN6         1.027      -0.55322
171                   MALIN7         1.057      -0.30438
172                   MALIN8        1.0319      -0.64839
173                  MIDWAY1        1.0465      -0.84192
174                  MIDWAY2        1.0546      -0.86058
175                  MIDWAY3        1.0462      -0.84183
176                  MIDWAY4        1.0547      -0.86061
177                  MIDWAY5         1.046      -0.84161
178                  MIDWAY6        1.0571      -0.86019
179                   BURNS2       0.98437      -0.11669

LINE DATA:
                   Line Name Fr. Bus (idx)  To Bus (idx)   P From (pu)   Q From (pu)     P To (pu)     Q To (pu)

Line_1                Line_1             2             7         -10.5      -0.71006        10.707       0.46763
Line_2                Line_2             4            16        3.1401       -1.2036       -3.0382       0.32809
Line_3                Line_3             4           159        2.3399       -1.4921       -2.2922      -0.21882
Line_4                Line_4             6            27        10.345      -0.79301       -10.345       0.40809
Line_5                Line_5             7            16       -3.2421       -4.7552        3.2582        4.8331
Line_6                Line_6             7           162      -0.99678      -0.87211        1.0027       0.18504
Line_7                Line_7            11            19        3.4271       -0.3375       -3.4271       0.27209
Line_8                Line_8            11            21        2.9911       -2.3146       -2.9911        2.1667
Line_9                Line_9            11           138        8.5818      0.014926       -8.4015       0.19477
Line_10              Line_10            13            20        -3.419       -1.1987         3.419        1.1257
Line_11              Line_11            13            23        3.4857       -1.5477       -3.4857        1.4422
Line_12              Line_12            13            25        10.108       -1.7759       -10.108       0.11646
Line_13              Line_13            13            28       -10.174      0.067899        10.174      -0.62402
Line_14              Line_14            15            18      -0.13313       -1.2965       0.13337       0.30148
Line_15              Line_15            15            18      -0.13313       -1.2965       0.13337       0.30148
Line_16              Line_16            15           135        8.8447      -0.42177        -8.659       0.21086
Line_17              Line_17            15           135        8.8447      -0.42177        -8.659       0.21086
Line_18              Line_18            18            22       -2.9709       -2.7409        2.9709        2.5668
Line_19              Line_19            18            24       -3.4659       -1.9331        3.4659        1.8164
Line_20              Line_20            19            20        3.4271      -0.27209        -3.419       -1.1257
Line_21              Line_21            21            22        2.9911       -2.1667       -2.9709       -2.5668
Line_22              Line_22            23            24        3.4857       -1.4422       -3.4659       -1.8164
Line_23              Line_23            25            26        10.108      -0.11646       -9.9083       0.54352
Line_24              Line_24            26           138        9.9083      -0.54352       -9.9083       -1.0698
Line_25              Line_25            27            28        10.345      -0.40809       -10.174       0.62402
Line_26              Line_26            30            31       -7.4852      -0.81775        7.6767       -0.5046
Line_27              Line_27            30            79        6.9852       -2.0635       -6.9474      -0.43987
Line_28              Line_28            32            33       -7.6767      -0.11098           7.8       0.55948
Line_29              Line_29            36            37        4.3239       -1.9778       -4.3107       0.70286
Line_30              Line_30            36            55        6.4175       0.42105       -6.3866       -1.1065
Line_31              Line_31            36            63        3.9393        1.0501       -3.9393       -1.1611
Line_32              Line_32            36            63        3.9393        1.0501       -3.9393       -1.1611
Line_33              Line_33            38            45       0.18226      -0.13706      -0.18218       0.06005
Line_34              Line_34            38            47       0.26313        -0.119      -0.26293      0.033745
Line_35              Line_35            38            58       0.64349     -0.068717      -0.64228     -0.020346
Line_36              Line_36            38            59     -0.089491      -0.22593      0.089581       0.14687
Line_37              Line_37            40            54       -2.1982      -0.10189        2.2004       0.11827
Line_38              Line_38            40            57       0.84819      -0.16811      -0.84794       0.15931
Line_39              Line_39            41            49       0.65426       0.15481      -0.65329      -0.22126
Line_40              Line_40            41            49        0.6103       0.13824      -0.60939       -0.2117
Line_41              Line_41            41            56       0.74768        0.1387      -0.74656      -0.19444
Line_42              Line_42            41            57       0.23456       0.11074      -0.23435      -0.20934
Line_43              Line_43            43           159        -1.865      -0.21354        1.8707      -0.19769
Line_44              Line_44            43           159        -1.865      -0.21354        1.8707      -0.19769
Line_45              Line_45            45            47       0.91018       0.10995      -0.90995       -0.1167
Line_46              Line_46            47            54        2.6277       0.23263       -2.6128      -0.16192
Line_47              Line_47            47            54        2.6277       0.23263       -2.6128      -0.16192
Line_48              Line_48            47            58         2.072      0.017582       -2.0664     0.0005699
Line_49              Line_49            47            58         2.072      0.017582       -2.0664     0.0005699
Line_50              Line_50            47            58        2.0574     -0.022718        -2.051      0.040603
Line_51              Line_51            47            58        2.0574     -0.022718        -2.051      0.040603
Line_52              Line_52            47            59       -3.3497      -0.88412        3.3527       0.91835
Line_53              Line_53            47            59       -3.3497      -0.88412        3.3527       0.91835
Line_54              Line_54            47            59       -3.3497      -0.88412        3.3527       0.91835
Line_55              Line_55            47            61        2.0094        0.1969       -2.0042      -0.18058
Line_56              Line_56            47            61        2.0094        0.1969       -2.0042      -0.18058
Line_57              Line_57            48            63       -3.1158      0.028703        3.1235       -1.7455
Line_58              Line_58            49            56       0.13947      -0.36081      -0.13942       0.35262
Line_59              Line_59            49            57       -2.0768       0.14377        2.0791      -0.13258
Line_60              Line_60            51            62        -1.485      -0.11733        1.5071      -0.11995
Line_61              Line_61            52            62        -1.485      -0.11733        1.5071      -0.11995
Line_62              Line_62            53            56      -0.39225        0.2593       0.39241      -0.28401
Line_63              Line_63            53            56      -0.39225        0.2593       0.39241      -0.28401
Line_64              Line_64            54            57        1.6415     -0.055221       -1.6384      0.057764
Line_65              Line_65            54            57        1.6415     -0.055221       -1.6384      0.057764
Line_66              Line_66            54            61       -1.9517      -0.17182        1.9563       0.18517
Line_67              Line_67            56            57       -1.0688       0.16984        1.0701      -0.18291
Line_68              Line_68            60           136        3.0868       0.31499       -3.0738      -0.17529
Line_69              Line_69            60           149        5.2327        1.1102       -5.2148      -0.83156
Line_70              Line_70            60           149        5.2327        1.1102       -5.2148      -0.83156
Line_71              Line_71            63           138       -7.0868        1.1041        7.1702      -0.52461
Line_72              Line_72            63           138       -7.0868        1.1041        7.1702      -0.52461
Line_73              Line_73            63           141        17.204       0.48452       -17.151       0.26893
Line_74              Line_74            65            77          11.1        2.1304       -11.007        2.3439
Line_75              Line_75            67            70        7.7772        3.1972       -7.7735       -3.1199
Line_76              Line_76            67            70        8.8016        3.5582       -8.7968       -3.4699
Line_77              Line_77            68            71        7.4003       -1.8825       -7.3998        1.8803
Line_78              Line_78            68            71        7.4003        -1.885       -7.3998        1.8778
Line_79              Line_79            68            75       -9.8645        2.0315        9.8844       -2.0356
Line_80              Line_80            68            75       -9.9917        2.0125        10.009       -1.9788
Line_81              Line_81            72            74         15.25           0.5       -14.881       -1.7248
Line_82              Line_82            73            77    7.1962e-11     8.507e-10     0.0011133       -2.0633
Line_83              Line_83            74            75      -0.69677        -2.401       0.70118       0.36218
Line_84              Line_84            74            77       -10.262       0.18584        10.403     0.0089271
Line_85              Line_85            75            77       -9.4992        2.0061        9.6009       -1.9947
Line_86              Line_86            75            77       -11.135         0.974        11.169       -2.7901
Line_87              Line_87            75            81        8.6471       0.60645       -8.6061      -0.95592
Line_88              Line_88            75            81        5.0708      -0.18227       -5.0464       -1.0767
Line_89              Line_89            75            81        5.0685      -0.17922       -5.0443       -1.0777
Line_90              Line_90            77            79       -27.583        2.7764        27.724        1.5465
Line_91              Line_91            77            79       -27.583        2.7764        27.724        1.5465
Line_92              Line_92            80            98       -8.6534        1.2443        8.8732       -2.2205
Line_93              Line_93            80           179        8.6534       -3.6835       -8.6534        1.5559
Line_94              Line_94            81            86         4.314      -0.29389       -4.3073      -0.41226
Line_95              Line_95            81            90        7.3189        -1.689       -7.2871        1.1923
Line_96              Line_96            81            94        7.7299       -1.6159       -7.6946        1.1869
Line_97              Line_97            82            88       -12.722        1.2697        12.829      -0.62202
Line_98              Line_98            82            93       -7.2161       -1.1328        7.2528       0.55366
Line_99              Line_99            82            97       -7.6175       -1.0792        7.6563       0.61553
Line_100            Line_100            82           167        9.6927        0.6825       -9.6927        -1.294
Line_101            Line_101            82           169        9.7864       0.54076       -9.7864       -1.2874
Line_102            Line_102            82           171        11.466      -0.31371       -11.466      -0.86994
Line_103            Line_103            83            98        8.8732       -4.5782       -8.8732        2.2205
Line_104            Line_104            84           155       0.42676       -1.2728      -0.42244       0.15503
Line_105            Line_105            85            87       -4.2969       -1.5905        4.3073       0.62062
Line_106            Line_106            85            89        12.847       -1.7938       -12.829        1.9044
Line_107            Line_107            85           179       -8.5505        3.3843        8.6534       -3.6876
Line_108            Line_108            86            87        4.3073       0.41226       -4.3073      -0.62062
Line_109            Line_109            88            89       -12.829       0.62202        12.829       -1.9044
Line_110            Line_110            90            91        7.2871       -1.1923       -7.2871       0.60186
Line_111            Line_111            91            92        7.2871      -0.60186       -7.2528      0.028158
Line_112            Line_112            92            93        7.2528     -0.028158       -7.2528      -0.55366
Line_113            Line_113            94            95        7.6946       -1.1869       -7.6946        0.5296
Line_114            Line_114            95            96        7.6946       -0.5296       -7.6563      0.034038
Line_115            Line_115            96            97        7.6563     -0.034038       -7.6563      -0.61553
Line_116            Line_116            99           100      -0.58246     -0.055275       0.58915      -0.15904
Line_117            Line_117            99           116        1.0155      -0.14472       -1.0035      0.072662
Line_118            Line_118           100           104       0.88111      -0.23199      -0.87252       0.14622
Line_119            Line_119           100           105       0.79415      -0.21536      -0.78579      0.096128
Line_120            Line_120           100           112       -1.6866       0.52617        1.7139      -0.45504
Line_121            Line_121           100           112       -1.7273        0.5313        1.7543      -0.45095
Line_122            Line_122           100           112        -1.696       0.52962        1.7234      -0.45598
Line_123            Line_123           100           116       0.74145      -0.21069      -0.72483     -0.070592
Line_124            Line_124           101           103        1.5569      -0.45792       -1.5551      -0.96313
Line_125            Line_125           101           107        2.2966       -1.1747       -2.2923      -0.34885
Line_126            Line_126           101           107        2.2966       -1.1747       -2.2923      -0.34885
Line_127            Line_127           103           106        1.7755      -0.16146       -1.7731       0.21901
Line_128            Line_128           103           133       -6.0232        2.2406        6.0616       -2.1525
Line_129            Line_129           103           134        2.7527       -2.0377       -2.7464       0.96175
Line_130            Line_130           104           116       0.59752      -0.14522      -0.58913      -0.11343
Line_131            Line_131           105           116       0.70569     -0.096128      -0.69712     -0.077899
Line_132            Line_132           106           107        -1.277      -0.57645        1.2797       0.60266
Line_133            Line_133           106           109        0.4001       0.21744          -0.4        -0.215
Line_134            Line_134           107           132       -4.6025        0.7541        4.6029       -1.0121
Line_135            Line_135           107           134       -2.7462       0.88767        2.7464      -0.96175
Line_136            Line_136           107           173       0.75858       -1.4558      -0.75858        1.4334
Line_137            Line_137           107           175       0.76167       -1.4719      -0.76167        1.4488
Line_138            Line_138           107           177       0.79427       -1.5167      -0.79427        1.4922
Line_139            Line_139           110           119         13.23       0.54074        -13.23       -2.1702
Line_140            Line_140           110           172        -11.34       -1.1557         11.34     -0.051803
Line_141            Line_141           113           123        11.095      0.072108       -11.093       -1.2201
Line_142            Line_142           113           125        11.095      0.072108       -11.093       -1.2201
Line_143            Line_143           113           168       -9.6024       -1.6023        9.6024       0.96478
Line_144            Line_144           113           170       -9.6912       -1.3991        9.6912       0.75414
Line_145            Line_145           114           124       -10.928      -0.80544        10.929      0.026878
Line_146            Line_146           114           126       -10.928      -0.80544        10.929      0.026878
Line_147            Line_147           114           127         9.996      -0.61433        -9.995      -0.47944
Line_148            Line_148           114           129        11.866       0.10563       -11.865       -1.0928
Line_149            Line_149           118           122       -12.959       -2.5754        12.959       0.82329
Line_150            Line_150           118           128       -9.8398      -0.49489        9.8408      -0.59627
Line_151            Line_151           118           130       -11.731      -0.11293        11.732      -0.38438
Line_152            Line_152           118           131        4.6422       -2.4785       -4.6419        2.2687
Line_153            Line_153           118           133         6.062        -2.634       -6.0616        2.1525
Line_154            Line_154           119           120         13.23        2.1702       -13.102      -0.83377
Line_155            Line_155           120           121        13.102       0.83377       -13.102       -2.5187
Line_156            Line_156           121           122        13.102        2.5187       -12.959      -0.82329
Line_157            Line_157           123           124        11.093        1.2201       -10.929     -0.026878
Line_158            Line_158           125           126        11.093        1.2201       -10.929     -0.026878
Line_159            Line_159           127           128         9.995       0.47944       -9.8408       0.59627
Line_160            Line_160           129           130        11.865        1.0928       -11.732       0.38438
Line_161            Line_161           131           132        4.6419       -2.2687       -4.6029        1.0121
Line_162            Line_162           135           151         8.758      -0.61773        -8.728       0.54869
Line_163            Line_163           136           142        1.5845     -0.015952       -1.5798     -0.020628
Line_164            Line_164           136           149      -0.26067      0.011246        0.2613      -0.16809
Line_165            Line_165           138           141        8.9911        -2.326       -8.8498      -0.81989
Line_166            Line_166           138           146       -5.2177       -1.5958         5.232       0.78452
Line_167            Line_167           140           142      -0.96001       0.44785       0.96124      -0.48256
Line_168            Line_168           141           144        9.2017        1.6337       -9.1795        -1.604
Line_169            Line_169           141           144        9.2527        1.5329       -9.2247       -1.5412
Line_170            Line_170           141           146       -10.379      -0.63748        10.568       -0.9586
Line_171            Line_171           141           150        6.0185       0.52832       -5.9984       -1.1385
Line_172            Line_172           141           152        4.9325       -1.1122       -4.9227        0.4341
Line_173            Line_173           141           152        4.9325       -1.1122       -4.9227        0.4341
Line_174            Line_174           142           145       -1.6777      -0.54384        1.6818       0.54573
Line_175            Line_175           142           153       -1.4777       0.40203        1.4853      -0.45247
Line_176            Line_176           144           150        1.6424      -0.33956       -1.6419     0.0005818
Line_177            Line_177           149           153    0.00028703       0.24225   -2.2838e-05      -0.36555
Line_178            Line_178           149           153     -0.012003       0.27239      0.012151      -0.38137
Line_179            Line_179           150           151       -4.6597       0.40988         4.668      -0.95869
Line_180            Line_180           152           174       -0.7578      -0.75225        0.7578       0.74278
Line_181            Line_181           152           176      -0.76087      -0.73795       0.76087       0.72862
Line_182            Line_182           152           178      -0.79339      -0.52446       0.79339       0.51771
Line_183            Line_183           154           155       0.55289      -0.40837       -0.5522      -0.21927
Line_184            Line_184           154           157       -2.2465      -0.10833        2.2716      -0.69392
Line_185            Line_185           154           157       -2.5149      0.025336        2.5446      -0.65681
Line_186            Line_186           154           159      -0.39267      -0.79241       0.39343       0.36279
Line_187            Line_187           154           159      -0.37765      -0.74771       0.37849       0.33372
Line_188            Line_188           154           164       -1.4095       0.42231        1.4121      -0.70795
Line_189            Line_189           154           166        1.8114        0.1396       -1.8089      -0.32798
Line_190            Line_190           155           166      0.041191        0.0448     -0.041095      -0.45702
Line_191            Line_191           156           160      -0.88566     -0.026587       0.89363      -0.26237
Line_192            Line_192           157           163        1.3347      -0.87898       -1.3187      -0.51376
Line_193            Line_193           157           164        2.8497      -0.39822       -2.8241    -0.0060505
Line_194            Line_194           157           165        2.7149      -0.86105       -2.6907       0.44974
Line_195            Line_195           157           165        2.7291      -0.86378       -2.7046       0.45672
Line_196            Line_196           159           165        -0.808     -0.097433        0.8104        -0.528
Line_197            Line_197           159           165        -0.793      -0.11287       0.79493       -0.5017
Line_198            Line_198           167           168        9.6927         1.294       -9.6024      -0.96478
Line_199            Line_199           169           170        9.7864        1.2874       -9.6912      -0.75414
Line_200            Line_200           171           172        11.466       0.86994        -11.34      0.051803
Line_201            Line_201           173           174       0.75858       -1.4334       -0.7578      -0.74278
Line_202            Line_202           175           176       0.76167       -1.4488      -0.76087      -0.72862
Line_203            Line_203           177           178       0.79427       -1.4922      -0.79339      -0.51771
Line_204            Line_204             1             2         -10.5       0.98247          10.5       0.71006
Line_205            Line_205             1             3            -7      -0.42247             7        1.2304
Line_206            Line_206             4             5         -9.48        2.5861          9.48       -1.3291
Line_207            Line_207             4            10         -19.5        1.3796          19.5        4.6483
Line_208            Line_208             6             7       -5.1723      -0.24812        5.1723       0.54024
Line_209            Line_209             6             7       -5.1723      -0.24812        5.1723       0.54024
Line_210            Line_210             7             8         -20.6         2.809          20.6      -0.30472
Line_211            Line_211             7             9       0.70113       0.12651      -0.70099      -0.11963
Line_212            Line_212             7             9       0.69615        0.1252      -0.69601      -0.11837
Line_213            Line_213            11            12         -15.9      -0.24648          15.9        1.9557
Line_214            Line_214            15            14       -25.357      -0.23876          25.4        3.7808
Line_215            Line_215            16            17         -8.62       -1.0287          8.62        1.4878
Line_216            Line_216            30            29         -43.5       -7.1188          43.5        10.111
Line_217            Line_217            31            32       -7.6767        0.5046        7.6767       0.11098
Line_218            Line_218            33            34         -43.8       -7.5595          43.8        11.502
Line_219            Line_219            84            35         -15.4       -1.7482          15.4        2.8566
Line_220            Line_220            37            47        4.3107      -0.70286       -4.3083        0.8276
Line_221            Line_221            38            39      -0.99939       0.55071             1      -0.52161
Line_222            Line_222            41            42       -2.2468       -0.5425          2.25       0.68265
Line_223            Line_223            43            44         -16.8       -3.8799          16.8        5.3459
Line_224            Line_224            47            46     -0.099547      -0.28035           0.1       0.29078
Line_225            Line_225            48            47        3.1158      -0.94826       -3.1132        1.0893
Line_226            Line_226            51            50         1.485       0.11733       -1.4838     -0.086435
Line_227            Line_227            52            50         1.485       0.11733       -1.4838     -0.086435
Line_228            Line_228            53            50       -0.2989      -0.40077       0.29897       0.40392
Line_229            Line_229            53            50       -0.2966      -0.39783       0.29667       0.40095
Line_230            Line_230            55            54        3.1933       0.55325        -3.192      -0.41659
Line_231            Line_231            55            54        3.1933       0.55325        -3.192      -0.41659
Line_232            Line_232            59            60        17.562        3.6941       -17.562       -3.3414
Line_233            Line_233            63            62         1.725        1.3748       -1.7241       -1.2775
Line_234            Line_234            65            64         -28.1       -5.1304          28.1        9.5329
Line_235            Line_235            67            66        1.6021       0.38208          -1.6       -0.3125
Line_236            Line_236            68            67        2.1083      -0.19653       -2.1075       0.24332
Line_237            Line_237            68            67        3.3893      -0.29992       -3.3884       0.37511
Line_238            Line_238            67            69        -12.01       -2.8019         12.01        4.3148
Line_239            Line_239            71            70          14.8        1.7273         -14.8       -1.2945
Line_240            Line_240            75            76       -50.748        1.3795        50.748        8.5523
Line_241            Line_241            79            78         -98.5        6.5752          98.5         18.54
Line_242            Line_242            83            84       -8.8732        2.0972        8.8732        -1.512
Line_243            Line_243           101           102         -6.65        2.5573          6.65       -2.0627
Line_244            Line_244           108           107       -3.1584      -0.85071        3.1613        1.0219
Line_245            Line_245           108           107       -4.6176       -1.2459        4.6218        1.4962
Line_246            Line_246           111           112          9.57       0.25671         -9.57        1.4344
Line_247            Line_247           112           113        2.8983       -1.6892       -2.8972        1.8833
Line_248            Line_248           115           116          4.94        1.9234         -4.94       -1.5411
Line_249            Line_249           116           118      -0.88545       0.77558       0.88572      -0.75852
Line_250            Line_250           117           118         33.67        16.544        -33.67       -10.911
Line_251            Line_251           137           138         8.827       -1.2877        -8.827        2.4349
Line_252            Line_252           139           140         30.95        10.325        -30.95       -6.7479
Line_253            Line_253           143           144          15.9        5.9381         -15.9       -4.6319
Line_254            Line_254           144           145        1.6818       0.56023       -1.6818      -0.54573
Line_255            Line_255           146           147         -15.8       -2.0699          15.8        4.4662
Line_256            Line_256           148           149            21        3.9372           -21       0.53656
Line_257            Line_257           152           153        4.0525       0.38215       -4.0525      -0.19109
Line_258            Line_258           152           153        4.0525       0.38215       -4.0525      -0.19109
Line_259            Line_259           152           153        4.0525       0.38215       -4.0525      -0.19109
Line_260            Line_260           155           156       0.59444     -0.099562      -0.59434       0.10559
Line_261            Line_261           157           158       -15.606        1.6027         15.65       -0.3137
Line_262            Line_262           160           161       -3.4436      -0.73763          3.45       0.91732
Line_263            Line_263           163           162        1.0027        0.2039       -1.0027      -0.18504

OTHER ALGEBRAIC VARIABLES:
                            

p PV 1                     8
p PV 2                 10.48
p PV 3                  21.6
p PV 4                  20.5
p PV 5                  16.9
p PV 6                  26.4
p PV 7                  9.62
p PV 8                  44.5
p PV 9                  44.8
p PV 10                 16.4
p PV 11                    2
p PV 12                 3.25
p PV 13                 17.8
p PV 14                  1.1
p PV 15                 29.1
p PV 16                13.01
p PV 18                 99.5
p PV 19                 7.65
p PV 20                10.57
p PV 21                 5.94
p PV 22                34.67
p PV 23                9.827
p PV 24                31.95
p PV 25                 16.9
p PV 26                 16.8
p PV 27                   22
p PV 28                16.65
p PV 29                 4.45
q PV 1                1.2304
q PV 2               -1.3291
q PV 3              -0.30472
q PV 4                4.6483
q PV 5                1.9557
q PV 6                3.7808
q PV 7                1.4878
q PV 8                10.111
q PV 9                11.502
q PV 10               2.8566
q PV 11             -0.52161
q PV 12              0.68265
q PV 13               5.3459
q PV 14              0.29078
q PV 15               9.5329
q PV 16               4.3148
q PV 18                18.54
q PV 19              -2.0627
q PV 20              0.25671
q PV 21               1.9234
q PV 22               16.544
q PV 23              -1.2877
q PV 24               10.325
q PV 25               5.9381
q PV 26               4.4662
q PV 27               3.9372
q PV 28              -0.3137
q PV 29              0.91732
p Slack 17            51.748
q Slack 17            8.5523

